<?xml version="1.0" encoding="iso-8859-1"?>
<!--
<ReadMe>

This XML can be imported in Altium Designer 14 using WEBENCH Altium Connector Extension and simulated using WEBENCH Simulation Engine.
The WEBENCH Altium Connector provides an interface to the Texas Instruments WEBENCH Designer Tools as well as to open WEBENCH exported Designs directly from inside Altium Designer.
It also includes the advanced WEBENCH Simulation Engine which can be used for offline circuit simulations.
You will need a activation key from TI to be able to use the WEBENCH Simulation Engine.

Installation guide:
http://www.ti.com/lit/SNVU481
You can download the WEBENCH extension from Altium Designer 14 Extensions.

Connector Details:
http://www.ti.com/lsds/ti/analog/webench/altiumconnector.page

More about WEBENCH simulation export to Altium:
http://www.ti.com/lsds/ti/analog/webench/simexportaltium.page

User Manual:
http://www.ti.com/lit/szzu007

</ReadMe>
-->
<schematic>
  <circuit>
    <text id="T_123456" position="400,-148" fontname="Times New Roman" fontsize="27" bold="0" color="#294901">
      <![CDATA[TLV62569P-DRL Startup Simulation
(Exported from WEBENCH® Designer)]]>
    </text>
    <text id="T_123456" position="945,-148" fontname="Arial" fontsize="13" bold="1" italic="1" color="#278190" border="1">
      <![CDATA[Title :   TLV62569P-DRL TLV62569PDRLR 3.5V-4.5V to 
3.30V @ 0.3A
-------------------------------------------------------------------------
WEBENCH® Design ID                  :       7
Date of WEBENCH® Export           :       16-Aug-2020
Time of WEBENCH® Export          :       6:32:01 AM
WEBENCH® Export Tool Version :       E1.67-X2.27]]>
    </text>
    <component type="Cin" typeid="57" position="540,320" mirrored="0" nodematch="0" macrotype="2" orientation="0">
			<parameter idx="0" encrypted="0">
        <![CDATA[
***********************************
*     Created by WB Importer      *
***********************************
.SUBCKT MAIN_BLOCK_Cin_WB_CAP_POLARIZED 1 2
Ccap 1 3 4.7E-6
Resr 3 2 0.001
.ENDS]]>
      </parameter>
			<image>
				<label text="Cin" position="546,298" textroot=" " orientation="0" color=""/>  <hotzone points="-24,60,24,-60"/>
        <shape type="line" width="Hair" color="#0000ff" points="0,-60,0,-40"/>
        <shape type="line" width="Hair" color="#0000ff" points="0,60,0,40"/>
        <shape type="line" width="1" color="#0000ff" points="24,-6,-24,-6"/>
        <shape type="line" width="1" color="#0000ff" points="0,40,0,6"/>
        <shape type="line" width="1" color="#0000ff" points="0,-6,0,-40"/>
        <shape type="line" width="1" color="#0000ff" points="24,6,-24,6"/>
        <legend text="4.7 uF" position="8,18" orientation="0" fontname="Arial" fontsize="12" bold="0" italic="0" color="#229922"/>
        <legend text="1 mOhm" position="8,32" orientation="0" fontname="Arial" fontsize="12" bold="0" italic="0" color="#229922"/>
        <legend text="" position="8,48" orientation="0" fontname="Arial" fontsize="12" bold="0" italic="0" color="#229922"/>
        <pin position="0,-60" dir="0" length="0" text="1"/>
        <pin position="0,60" dir="0" length="0" text="2"/>
      </image>
		</component>
    <component type="Cout" typeid="57" position="1650,300" mirrored="0" nodematch="0" macrotype="2" orientation="0">
			<parameter idx="0" encrypted="0">
        <![CDATA[
***********************************
*     Created by WB Importer      *
***********************************
.SUBCKT MAIN_BLOCK_Cout_WB_CAP_CERAMIC 2 4
R1 2 3 3.333333333333333E-4
C1 3 4 1.1E-5 IC=0.0
R3 5 4 5
R2 2 4 9.09090909090909E7
R4 3 26 74074.07407407409
R6 3 7 74.07407407407408
C5 7 1 3.2999999999999996E-7 IC=0.0
R7 3 10 7.407407407407408
C6 10 1 3.2999999999999996E-7 IC=0.0
R8 3 13 0.7407407407407408
C7 13 1 3.2999999999999996E-7 IC=0.0
C2 26 1 3.2999999999999996E-7 IC=0.0
R9 3 28 7407.407407407408
C3 28 1 3.2999999999999996E-7 IC=0.0
R10 3 29 740.7407407407408
C4 29 1 3.2999999999999996E-7 IC=0.0
L8 1 5 15p
R24 1 5 0.001
L12 5 4 1n
.ENDS]]>
      </parameter>
			<image>
				<label text="Cout" position="1656,278" textroot=" " orientation="0" color=""/>  <hotzone points="-24,60,24,-60"/>
        <shape type="line" width="Hair" color="#0000ff" points="0,-60,0,-40"/>
        <shape type="line" width="Hair" color="#0000ff" points="0,60,0,40"/>
        <shape type="line" width="1" color="#0000ff" points="24,-6,-24,-6"/>
        <shape type="line" width="1" color="#0000ff" points="0,40,0,6"/>
        <shape type="line" width="1" color="#0000ff" points="0,-6,0,-40"/>
        <shape type="line" width="1" color="#0000ff" points="24,6,-24,6"/>
        <legend text="10 uF" position="8,18" orientation="0" fontname="Arial" fontsize="12" bold="0" italic="0" color="#229922"/>
        <legend text="1 mOhm" position="8,32" orientation="0" fontname="Arial" fontsize="12" bold="0" italic="0" color="#229922"/>
        <legend text="qty=3" position="8,48" orientation="0" fontname="Arial" fontsize="12" bold="0" italic="0" color="#229922"/>
        <pin position="0,-60" dir="0" length="0" text="2"/>
        <pin position="0,60" dir="0" length="0" text="4"/>
      </image>
		</component>
    <component type="Ground" typeid="2" position="1000,570" mirrored="0" nodematch="0" macrotype="2" orientation="0">
			<parameter idx="0" encrypted="0">
			</parameter>
			<image>
				<label text="GND1" position="1000,570" textroot="GND1" orientation="0" color="#228822"/>
			</image>
		</component>
    <component type="IIn" typeid="34" position="480,100" mirrored="0" nodematch="0" macrotype="2" orientation="0">
			<parameter idx="0" encrypted="0">
			</parameter>
			<image>
				<label text="IIn" position="480,100" textroot=" " orientation="0" color=""/>  <hotzone points="-30,-6,30,6"/>
        <shape type="line" width="Hair" color="#0000ff" points="-30,0,30,0"/>
        <shape type="line" width="1" color="#0000ff" points="-6,-4,-6,4"/>
        <shape type="line" width="1" color="#0000ff" points="-6,4,4,0"/>
        <shape type="line" width="1" color="#0000ff" points="4,0,-6,-4"/>
        <pin position="-30,0" dir="0" length="0" text="1"/>
        <pin position="30,0" dir="0" length="0" text="2"/>
      </image>  <parameter idx="0" encrypted="0">
        <![CDATA[***********************************
*     Created by WB Importer      *
***********************************
.SUBCKT IIn 1 2 
V_Iprobe 1 2 0.0
.ENDS
]]>
      </parameter>
      <parameter idx="1" name="VALUE" value="0"/>
    </component>
    <component type="IOut" typeid="34" position="1740,100" mirrored="0" nodematch="0" macrotype="2" orientation="0">
			<parameter idx="0" encrypted="0">
			</parameter>
			<image>
				<label text="IOut" position="1740,100" textroot=" " orientation="0" color=""/>  <hotzone points="-30,-6,30,6"/>
        <shape type="line" width="Hair" color="#0000ff" points="-30,0,30,0"/>
        <shape type="line" width="1" color="#0000ff" points="-6,-4,-6,4"/>
        <shape type="line" width="1" color="#0000ff" points="-6,4,4,0"/>
        <shape type="line" width="1" color="#0000ff" points="4,0,-6,-4"/>
        <pin position="-30,0" dir="0" length="0" text="1"/>
        <pin position="30,0" dir="0" length="0" text="2"/>
      </image>  <parameter idx="0" encrypted="0">
        <![CDATA[***********************************
*     Created by WB Importer      *
***********************************
.SUBCKT IOut 1 2 
V_Iprobe 1 2 0.0
.ENDS
]]>
      </parameter>
      <parameter idx="1" name="VALUE" value="0"/>
    </component>
    <component type="ICin" typeid="34" position="540,220" mirrored="0" nodematch="0" macrotype="2" orientation="0">
			<parameter idx="0" encrypted="0">
			</parameter>
			<image>
				<label text="ICin" position="540,220" textroot=" " orientation="0" color=""/>  <hotzone points="6,-30,-6,30"/>
        <shape type="line" width="Hair" color="#0000ff" points="0,-30,0,30"/>
        <shape type="line" width="1" color="#0000ff" points="4,-6,-4,-6"/>
        <shape type="line" width="1" color="#0000ff" points="-4,-6,0,4"/>
        <shape type="line" width="1" color="#0000ff" points="0,4,4,-6"/>
        <pin position="0,-30" dir="0" length="0" text="1"/>
        <pin position="0,30" dir="0" length="0" text="2"/>
      </image>  <parameter idx="0" encrypted="0">
        <![CDATA[***********************************
*     Created by WB Importer      *
***********************************
.SUBCKT ICin 1 2 
V_Iprobe 1 2 0.0
.ENDS
]]>
      </parameter>
      <parameter idx="1" name="VALUE" value="0"/>
    </component>
    <component type="L1" typeid="57" position="1340,100" mirrored="0" nodematch="0" macrotype="2" orientation="0">
			<parameter idx="0" encrypted="0">
        <![CDATA[
***********************************
*     Created by WB Importer      *
***********************************
.SUBCKT MAIN_BLOCK_L1_WB_INDUCTOR 1 2
L1 2 3 2.2E-6
RDCR 3 1 0.025
.ENDS]]>
      </parameter>
			<image>
				<label text="L1" position="1306,70" textroot=" " orientation="0" color=""/>  <hotzone points="-60,-10,60,10"/>
        <shape type="line" width="Hair" color="#0000ff" points="40,0,60,0"/>
        <shape type="line" width="Hair" color="#0000ff" points="-40,0,-60,0"/>
        <legend text="2.2 uH" position="-30,8" orientation="0" fontname="Arial" fontsize="12" bold="0" italic="0" color="#229922"/>
        <legend text="25 mOhm" position="-30,22" orientation="0" fontname="Arial" fontsize="12" bold="0" italic="0" color="#229922"/>
        <shape type="arc" color="#0000ff" width="2" points="-40,-10,-20,10,90,90"/>
        <shape type="arc" color="#0000ff" width="2" points="-40,-10,-20,10,0,90"/>
        <shape type="arc" color="#0000ff" width="2" points="-20,-10,0,10,90,90"/>
        <shape type="arc" color="#0000ff" width="2" points="-20,-10,0,10,0,90"/>
        <shape type="arc" color="#0000ff" width="2" points="0,-10,20,10,90,90"/>
        <shape type="arc" color="#0000ff" width="2" points="0,-10,20,10,0,90"/>
        <shape type="arc" color="#0000ff" width="2" points="20,-10,40,10,90,90"/>
        <shape type="arc" color="#0000ff" width="2" points="20,-10,40,10,0,90"/>
        <pin position="-60,0" dir="0" length="0" text="1"/>
        <pin position="60,0" dir="0" length="0" text="2"/>
      </image>
		</component>
    <component type="VIn" typeid="4" position="400,100" mirrored="0" nodematch="0" macrotype="2" orientation="0">
			<parameter idx="0" encrypted="0">
			</parameter>
			<image>
				<label text="VIn" position="400,70" textroot="VIn" orientation="0" color="#228822"/>
			</image>
		</component>
    <component type="ICout" typeid="34" position="1650,180" mirrored="0" nodematch="0" macrotype="2" orientation="0">
			<parameter idx="0" encrypted="0">
			</parameter>
			<image>
				<label text="ICout" position="1650,180" textroot=" " orientation="0" color=""/>  <hotzone points="6,-30,-6,30"/>
        <shape type="line" width="Hair" color="#0000ff" points="0,-30,0,30"/>
        <shape type="line" width="1" color="#0000ff" points="4,-6,-4,-6"/>
        <shape type="line" width="1" color="#0000ff" points="-4,-6,0,4"/>
        <shape type="line" width="1" color="#0000ff" points="0,4,4,-6"/>
        <pin position="0,-30" dir="0" length="0" text="1"/>
        <pin position="0,30" dir="0" length="0" text="2"/>
      </image>  <parameter idx="0" encrypted="0">
        <![CDATA[***********************************
*     Created by WB Importer      *
***********************************
.SUBCKT ICout 1 2 
V_Iprobe 1 2 0.0
.ENDS
]]>
      </parameter>
      <parameter idx="1" name="VALUE" value="0"/>
    </component>
    <component type="TLV62569PDRLR" typeid="57" position="1000,160" mirrored="0" nodematch="0" macrotype="2" orientation="0">
			<parameter idx="0" encrypted="0">
        <![CDATA[*****************************************************************************
** MAIN_BLOCK.U1.WB_TLV62569PDDC Spice Model
*****************************************************************************
** (C) Copyright 2020 Texas Instruments Incorporated. All rights reserved.
** This model is designed as an aid for customers of Texas Instruments.
** TI and its licensors and suppliers make no warranties, either expressed
** or implied, with respect to this model, including the warranties of
** merchantability or fitness for a particular purpose. The model is
** provided solely on an "as is" basis. The entire risk as to its quality
** and performance is with the customer
*****************************************************************************
*****************************************************************************

.SUBCKT MAIN_BLOCK_U1_WB_TLV62569PDDC_ENCR EN GND SW VIN PG FB PARAMS: SS=0
.include pspice://../MAIN_BLOCK.U1.WB_TLV62569PDDC.enl
XCALL EN GND SW VIN PG FB MAIN_BLOCK_U1_WB_TLV62569PDDC PARAMS: SS=0 
.ENDS
]]>
      </parameter>
			<image>
				<label text="U1" position="860,0" textroot="U1 " orientation="0" color=""/>  <hotzone points="-140,-140,140,140"/>
        <shape type="line" width="Hair" color="#0000ff" points="-100,100,100,100"/>
        <shape type="line" width="Hair" color="#0000ff" points="100,100,100,-100"/>
        <shape type="line" width="Hair" color="#0000ff" points="100,-100,-100,-100"/>
        <shape type="line" width="Hair" color="#0000ff" points="-100,-100,-100,100"/>
        <shape type="line" width="Hair" color="#0000ff" points="140,20,100,20"/>
        <shape type="line" width="Hair" color="#0000ff" points="140,60,100,60"/>
        <shape type="line" width="Hair" color="#0000ff" points="-140,-60,-100,-60"/>
        <shape type="line" width="Hair" color="#0000ff" points="140,-60,100,-60"/>
        <shape type="line" width="Hair" color="#0000ff" points="-140,-20,-100,-20"/>
        <shape type="line" width="Hair" color="#0000ff" points="-140,60,-100,60"/>
        <shape type="line" width="1" color="#ff0000" points="-1,-75,-2,-70"/>
        <shape type="line" width="1" color="#ff0000" points="-1,-77,-1,-77"/>
        <shape type="polygon" width="1" color="#ff0000" fill="#ff0000" points="-7,-79,-7,-73,-11,-73,-11,-72,-10,-71,-9,-69,-8,-68,-7,-68,-6,-69,-5,-68,-4,-66,-1,-64,0,-64,0,-66,1,-68,3,-69,4,-70,4,-73,3,-74,3,-76,1,-76,0,-74,2,-74,1,-72,0,-72,-1,-70,0,-70,0,-69,-1,-68,-3,-68,-4,-69,-3,-72,-5,-72,-4,-74,-3,-74,-3,-74,-2,-76,-4,-76,-4,-78,-4,-79"/>
        <legend text="TLV62569PDRL" position="-48,-44" orientation="0" fontname="Arial" fontsize="10" bold="0" italic="0" color="4278190208"/>
        <pin position="-140,-20" dir="0" length="0" text="EN">
          <legend text="EN" position="-118,-30" orientation="0" fontname="Arial" fontsize="10" bold="0" italic="0" color="4286578688"/>
        </pin>
        <pin position="140,60" dir="0" length="0" text="GND">
          <legend text="GND" position="90,50" orientation="0" fontname="Arial" fontsize="10" bold="0" italic="0" color="4286578688"/>
        </pin>
        <pin position="140,-60" dir="0" length="0" text="SW">
          <legend text="SW" position="100,-70" orientation="0" fontname="Arial" fontsize="10" bold="0" italic="0" color="4286578688"/>
        </pin>
        <pin position="-140,-60" dir="0" length="0" text="VIN">
          <legend text="VIN" position="-118,-70" orientation="0" fontname="Arial" fontsize="10" bold="0" italic="0" color="4286578688"/>
        </pin>
        <pin position="-140,60" dir="0" length="0" text="PG">
          <legend text="PG" position="-118,50" orientation="0" fontname="Arial" fontsize="10" bold="0" italic="0" color="4286578688"/>
        </pin>
        <pin position="140,20" dir="0" length="0" text="FB">
          <legend text="FB" position="100,10" orientation="0" fontname="Arial" fontsize="10" bold="0" italic="0" color="4286578688"/>
        </pin>
      </image>
		</component>
    <component type="VSwitch" typeid="4" position="1160,100" mirrored="0" nodematch="0" macrotype="2" orientation="0">
			<parameter idx="0" encrypted="0">
			</parameter>
			<image>
				<label text="VSwitch" position="1160,70" textroot="VSwitch" orientation="0" color="#228822"/>
			</image>
		</component>
    <component type="IInductor" typeid="34" position="1220,100" mirrored="0" nodematch="0" macrotype="2" orientation="0">
			<parameter idx="0" encrypted="0">
			</parameter>
			<image>
				<label text="IInductor" position="1220,100" textroot=" " orientation="0" color=""/>  <hotzone points="-30,-6,30,6"/>
        <shape type="line" width="Hair" color="#0000ff" points="-30,0,30,0"/>
        <shape type="line" width="1" color="#0000ff" points="-6,-4,-6,4"/>
        <shape type="line" width="1" color="#0000ff" points="-6,4,4,0"/>
        <shape type="line" width="1" color="#0000ff" points="4,0,-6,-4"/>
        <pin position="-30,0" dir="0" length="0" text="1"/>
        <pin position="30,0" dir="0" length="0" text="2"/>
      </image>  <parameter idx="0" encrypted="0">
        <![CDATA[***********************************
*     Created by WB Importer      *
***********************************
.SUBCKT IInductor 1 2 
V_Iprobe 1 2 0.0
.ENDS
]]>
      </parameter>
      <parameter idx="1" name="VALUE" value="0"/>
    </component>
    <component type="Rpgood" typeid="57" position="720,220" mirrored="0" nodematch="0" macrotype="2" orientation="0">
			<parameter idx="0" encrypted="0">
        <![CDATA[
***********************************
*     Created by WB Importer      *
***********************************
.subckt MAIN_BLOCK_WB_TLV62569P_MAIN_BLOCK_NEW2_Rpgood 1 2
Rpgood 1 2 475000.0

.ends]]>
      </parameter>
			<image>
				<label text="Rpgood" position="690,196" textroot=" " orientation="0" color=""/>  <hotzone points="-60,-10,60,10"/>
        <shape type="line" width="1" color="#0000ff" points="-60,0,-40,0"/>
        <shape type="line" width="1" color="#0000ff" points="-40,0,-30,-10"/>
        <shape type="line" width="1" color="#0000ff" points="-30,-10,-10,10"/>
        <shape type="line" width="1" color="#0000ff" points="-10,10,10,-10"/>
        <shape type="line" width="1" color="#0000ff" points="10,-10,30,10"/>
        <shape type="line" width="1" color="#0000ff" points="30,10,40,0"/>
        <shape type="line" width="1" color="#0000ff" points="40,0,60,0"/>
        <legend text="0.475 MOhm" position="-36,20" orientation="0" fontname="Arial" fontsize="12" bold="0" italic="0" color="#229922"/>
        <pin position="60,0" dir="0" length="0" text="1"/>
        <pin position="-60,0" dir="0" length="0" text="2"/>
      </image>
		</component>
    <component type="VOut" typeid="4" position="1820,100" mirrored="0" nodematch="0" macrotype="2" orientation="0">
			<parameter idx="0" encrypted="0">
			</parameter>
			<image>
				<label text="VOut" position="1820,70" textroot="VOut" orientation="0" color="#228822"/>
			</image>
		</component>
    <component type="Vin_2" typeid="57" position="350,260" mirrored="0" nodematch="0" macrotype="2" orientation="0">
			<parameter idx="0" encrypted="0">
        <![CDATA[
***********************************
*     Created by WB Importer      *
***********************************
.SUBCKT INPUT_BLOCK_Vin_WB_STARTUP_VOLTAGE_SOURCE 1 2
Rsource 3 1 1m
Vin1 3 2 PULSE 0 4.0 10u 10u
.ENDS]]>
      </parameter>
			<image>
				<label text="Vin_2" position="380,230" textroot=" " orientation="0" color=""/>  <hotzone points="30,-60,-30,60"/>
        <shape type="line" width="Hair" color="#0000ff" points="0,60,0,30"/>
        <shape type="line" width="Hair" color="#0000ff" points="0,-60,0,-30"/>
        <shape type="line" width="Hair" color="#0000ff" points="20,-30,20,-40"/>
        <shape type="line" width="Hair" color="#0000ff" points="14,-34,26,-34"/>
        <shape type="line" width="Hair" color="#0000ff" points="14,34,26,34"/>
        <shape type="line" width="1" color="#0000ff" points="-22,10,-16,10"/>
        <shape type="line" width="1" color="#0000ff" points="-16,10,-14,-10"/>
        <shape type="line" width="1" color="#0000ff" points="-14,-10,22,-10"/>
        <shape type="ellipse" points="-30,30,30,-30" color="#0000ff" width="2"/>
        <pin position="0,-60" dir="0" length="0" text="1"/>
        <pin position="0,60" dir="0" length="0" text="2"/>
      </image>
		</component>
    <component type="ILoad" typeid="34" position="1910,210" mirrored="0" nodematch="0" macrotype="2" orientation="0">
			<parameter idx="0" encrypted="0">
			</parameter>
			<image>
				<label text="ILoad" position="1910,210" textroot=" " orientation="0" color=""/>  <hotzone points="6,-30,-6,30"/>
        <shape type="line" width="Hair" color="#0000ff" points="0,-30,0,30"/>
        <shape type="line" width="1" color="#0000ff" points="4,-6,-4,-6"/>
        <shape type="line" width="1" color="#0000ff" points="-4,-6,0,4"/>
        <shape type="line" width="1" color="#0000ff" points="0,4,4,-6"/>
        <pin position="0,-30" dir="0" length="0" text="1"/>
        <pin position="0,30" dir="0" length="0" text="2"/>
      </image>  <parameter idx="0" encrypted="0">
        <![CDATA[***********************************
*     Created by WB Importer      *
***********************************
.SUBCKT ILoad 1 2 
V_Iprobe 1 2 0.0
.ENDS
]]>
      </parameter>
      <parameter idx="1" name="VALUE" value="0"/>
    </component>
    <component type="Rload" typeid="57" position="1910,400" mirrored="0" nodematch="0" macrotype="2" orientation="0">
			<parameter idx="0" encrypted="0">
        <![CDATA[
***********************************
*     Created by WB Importer      *
***********************************
.subckt OUTPUT_BLOCK_WB_OUTPUT_BLOCK_STARTUP_PROBE_Rload 1 2
Rload 1 2 11.0

.ends]]>
      </parameter>
			<image>
				<label text="Rload" position="1928,370" textroot=" " orientation="0" color=""/>  <hotzone points="-10,60,10,-60"/>
        <shape type="line" width="1" color="#0000ff" points="0,60,0,40"/>
        <shape type="line" width="1" color="#0000ff" points="0,40,-10,30"/>
        <shape type="line" width="1" color="#0000ff" points="-10,30,10,10"/>
        <shape type="line" width="1" color="#0000ff" points="10,10,-10,-10"/>
        <shape type="line" width="1" color="#0000ff" points="-10,-10,10,-30"/>
        <shape type="line" width="1" color="#0000ff" points="10,-30,0,-40"/>
        <shape type="line" width="1" color="#0000ff" points="0,-40,0,-60"/>
        <pin position="0,-60" dir="0" length="0" text="1"/>
        <pin position="0,60" dir="0" length="0" text="2"/>
      </image>
		</component>
    <component type="Rfbt" typeid="57" position="1450,210" mirrored="0" nodematch="0" macrotype="2" orientation="0">
			<parameter idx="0" encrypted="0">
        <![CDATA[
***********************************
*     Created by WB Importer      *
***********************************
.subckt MAIN_BLOCK_WB_TLV6256x_FBDIVIDER_WB_TLV6256x_FBDIVIDER_Rfbt 1 2
Rfbt 1 2 442000.0

.ends]]>
      </parameter>
			<image>
				<label text="Rfbt" position="1468,180" textroot=" " orientation="0" color=""/>  <hotzone points="-10,60,10,-60"/>
        <shape type="line" width="1" color="#0000ff" points="0,60,0,40"/>
        <shape type="line" width="1" color="#0000ff" points="0,40,-10,30"/>
        <shape type="line" width="1" color="#0000ff" points="-10,30,10,10"/>
        <shape type="line" width="1" color="#0000ff" points="10,10,-10,-10"/>
        <shape type="line" width="1" color="#0000ff" points="-10,-10,10,-30"/>
        <shape type="line" width="1" color="#0000ff" points="10,-30,0,-40"/>
        <shape type="line" width="1" color="#0000ff" points="0,-40,0,-60"/>
        <legend text="0.442 MOhm" position="10,-8" orientation="0" fontname="Arial" fontsize="12" bold="0" italic="0" color="#229922"/>
        <pin position="0,-60" dir="0" length="0" text="1"/>
        <pin position="0,60" dir="0" length="0" text="2"/>
      </image>
		</component>
    <component type="Rfbb" typeid="57" position="1450,410" mirrored="0" nodematch="0" macrotype="2" orientation="0">
			<parameter idx="0" encrypted="0">
        <![CDATA[
***********************************
*     Created by WB Importer      *
***********************************
.subckt MAIN_BLOCK_WB_TLV6256x_FBDIVIDER_WB_TLV6256x_FBDIVIDER_Rfbb 1 2
Rfbb 1 2 100000.0

.ends]]>
      </parameter>
			<image>
				<label text="Rfbb" position="1468,380" textroot=" " orientation="0" color=""/>  <hotzone points="-10,60,10,-60"/>
        <shape type="line" width="1" color="#0000ff" points="0,60,0,40"/>
        <shape type="line" width="1" color="#0000ff" points="0,40,-10,30"/>
        <shape type="line" width="1" color="#0000ff" points="-10,30,10,10"/>
        <shape type="line" width="1" color="#0000ff" points="10,10,-10,-10"/>
        <shape type="line" width="1" color="#0000ff" points="-10,-10,10,-30"/>
        <shape type="line" width="1" color="#0000ff" points="10,-30,0,-40"/>
        <shape type="line" width="1" color="#0000ff" points="0,-40,0,-60"/>
        <legend text="0.1 MOhm" position="10,-8" orientation="0" fontname="Arial" fontsize="12" bold="0" italic="0" color="#229922"/>
        <pin position="0,-60" dir="0" length="0" text="1"/>
        <pin position="0,60" dir="0" length="0" text="2"/>
      </image>
		</component>
    <wire points="350,100,370,100" label=""/>
    <wire points="350,540,370,540" label=""/>
    <wire points="1890,540,1910,540" label=""/>
    <wire points="1890,100,1910,100" label=""/>
    <wire points="350,100,450,100" label=""/>
    <wire points="370,540,1890,540" label=""/>
    <wire points="540,540,540,380" label=""/>
    <wire points="540,250,540,260" label=""/>
    <wire points="540,190,540,100" label=""/>
    <wire points="540,140,860,140" label=""/>
    <wire points="660,220,660,140" label=""/>
    <wire points="780,220,860,220" label=""/>
    <wire points="860,100,510,100" label=""/>
    <wire points="1000,570,1000,540" label=""/>
    <wire points="1140,100,1190,100" label=""/>
    <wire points="1210,220,1140,220" label=""/>
    <wire points="1210,220,1210,540" label=""/>
    <wire points="1250,100,1280,100" label=""/>
    <wire points="1400,100,1710,100" label=""/>
    <wire points="1650,360,1650,540" label=""/>
    <wire points="1650,210,1650,240" label=""/>
    <wire points="1650,150,1650,100" label=""/>
    <wire points="1770,100,1890,100" label=""/>
    <wire points="350,100,350,120" label=""/>
    <wire points="350,520,350,540" label=""/>
    <wire points="350,320,350,520" label=""/>
    <wire points="350,200,350,120" label=""/>
    <wire points="1910,100,1910,120" label=""/>
    <wire points="1910,520,1910,540" label=""/>
    <wire points="1910,520,1910,460" label=""/>
    <wire points="1910,280,1910,340" label=""/>
    <wire points="1910,280,1910,240" label=""/>
    <wire points="1910,120,1910,180" label=""/>
    <wire points="1140,180,1160,180" label=""/>
    <wire points="1450,100,1450,120" label=""/>
    <wire points="1450,520,1450,540" label=""/>
    <wire points="1160,180,1260,180" label=""/>
    <wire points="1260,310,1260,180" label=""/>
    <wire points="1260,310,1450,310" label=""/>
    <wire points="1450,470,1450,520" label=""/>
    <wire points="1450,350,1450,270" label=""/>
    <wire points="1450,120,1450,150" label=""/>
  </circuit>
  <analysis>
    <altium_simulation>
      <parameter idx="0" name="TSTOP" value="1.1m" group=".TRAN"/>
      <parameter idx="1" name="RELTOL" value="0.002" group=".TRAN"/>
      <parameter idx="2" name="MAXITERS" value="40" group=".TRAN"/>
      <parameter idx="3" name="VABSTOL" value="10u" group=".TRAN"/>
      <parameter idx="4" name="MAX_LIMITING_ITERS" value="100" group=".TRAN"/>
      <parameter idx="5" name="KCLTOL" value="10n" group=".TRAN"/>
      <parameter idx="6" name="TRES" value="1n" group=".TRAN"/>
      <parameter idx="7" name="IABSTOL" value="10n" group=".TRAN"/>
      <parameter idx="8" name="LTERATIO" value="20" group=".TRAN"/>
      <parameter idx="9" name="TSTART" value="0" group=".TRAN"/>
      <parameter idx="10" name="CMIN" value="1f" group=".TRAN"/>
      <parameter idx="11" name="LTERELRATIO" value="20" group=".TRAN"/>
      <parameter idx="12" name="OPTSTEP" value="off" group=".TRAN"/>
      <parameter idx="13" name="TRAN_LIMITING" value="true" group=".OPTIONS"/>
      <parameter idx="14" name="MAXMOS_DIM" value="1000000000" group=".OPTIONS"/>
      <parameter idx="15" name="ROUND_ABSTOL" value="1" group=".OPTIONS"/>
      <parameter idx="16" name="ROUND_RELTOL" value="1" group=".OPTIONS"/>
      <parameter idx="17" name="FILTER" value="false" group=".OPTIONS"/>
      <parameter idx="18" name="CHECK_DCMAX" value="false" group=".OPTIONS"/>
      <parameter idx="19" name="Simulator" value="pspice" group="GENERAL"/>
    </altium_simulation>
  </analysis>
  <encrypt_macros>
    <macro filename="MAIN_BLOCK.U1.WB_TLV62569PDDC.enl">
      <![CDATA[-------- ENCRYPTED FILE --------
TQ/sFf6o2e8=
XXiXdrIm7jXMNbzak2HOAj+HvXxQjxU1eTdLGIX5fOzsprPjCHVfHlYd0CDl4dNqvmSzXQPLEgBqwU6J8pm1Eg==
L4PwbgytUU+RQ14gUD+55s5oJwhBtGjCWWE9YL/6yTGwrAEOXjSj4VB23p+4lWN2eH+kvlON
mnf0dNgdsAys7txbrN5sUsqDL13lhZmcR6C5xnBNUfi6huVKRhN9JMHGqvrGobjwe1H0hpEO
13wDPYyEM3Dy9qXIyzNqbMpCihepORVWf27y+glSlKWXzwOqu/Ft1y7rYSPYG0KuYvz1R6eY
IKW0ee6jWzrYJpgdbIPUQtp64MnceIa9PHfPKCgXmK542Dh3Tw46EXW0uHYIHuGf1YwlEK07
rYeT4QQDSc5wpZGl6/yFh8wU3gGOoBSY3blnIa4omlzXgwBVQ51w6oX5yWHJlB7t4xDw9eyr
Jzjgs+1hk35wA3B+pD2ZZUSdvmEnS//UyOpB7T7vV0t3SBTZHXPWuaQPrtBSPhtBPJX5tCb0
gtv1/Mxz1wiBkFmJ2y297qjmTDPFsVJMk054Xto4SaNhOMfMeBY7qwhQa/YoDoh6PRrJkID0
9lux5oaHXL1bgBLkE56/QYAL/cIo90kPdrdcZMnoeh4+HYgrGeP1cr7CyLTudVC0+S7fnRSa
HURMaDaDbOix+dE/eTArcxJkup1dGCldbo9cK03VFvpr9oRsCpPXoSeg43Ru+CXvDJDnNiX1
xQGnzlvaufjLTfWdVek1LLDdguAxqECz/64UUxr3i2qEVXl2/IRjYPPVJ+vCx67dI7pMf9SM
NLb8Jd2gzO000wI9/Lm/dx/NFzO7xa2IKb5OlihmpNZYpthDwG4hqdNYvA69bF8skXNJgYSn
RT2OFuTIzyVIn8+KcGROqmXz12GDsu3gmQztvRxxaF0sDxYWEizHP5B6NRAhWy0OFpvn/Zzz
URIdJaubEkAUCiU7z38ZU7IwXD1l6Ln4E8cX1q3oyDAqLl2kVy96RQm0JO80r4/v+7MhVu/X
bB/Uksm/Q3kORqaBmsXhyo1OwWr5wEUUR6JdXHlU91EsIDSt1tU8cgLFp0RdOuAmGSZs7Ob8
QBpehs5W4dyL3XKYf4aNiiVQsxOEmiu2QqoG8SIYDU52Yk4McQ7ERJ6j1wKU+9naDeuCf1e0
yt32DpELleNBfO07DBCpFhK3PZN23tKd1Hzk6yhhw/0sXfzYtl3JiI70uWYQdogZMixd8fwA
D60/Ax34zrQcYQL4zoBbtgth6c10Toty+h7SEUn23phSfl28f0bV6l1CPkKDoUhVEGkmodMb