<?xml version="1.0" encoding="iso-8859-1"?>
<!--
<ReadMe>

This XML can be imported in Altium Designer 14 using WEBENCH Altium Connector Extension and simulated using WEBENCH Simulation Engine.
The WEBENCH Altium Connector provides an interface to the Texas Instruments WEBENCH Designer Tools as well as to open WEBENCH exported Designs directly from inside Altium Designer.
It also includes the advanced WEBENCH Simulation Engine which can be used for offline circuit simulations.
You will need a activation key from TI to be able to use the WEBENCH Simulation Engine.

Installation guide:
http://www.ti.com/lit/SNVU481
You can download the WEBENCH extension from Altium Designer 14 Extensions.

Connector Details:
http://www.ti.com/lsds/ti/analog/webench/altiumconnector.page

More about WEBENCH simulation export to Altium:
http://www.ti.com/lsds/ti/analog/webench/simexportaltium.page

User Manual:
http://www.ti.com/lit/szzu007

</ReadMe>
-->
<schematic>
  <circuit>
    <text id="T_123456" position="400,-148" fontname="Times New Roman" fontsize="27" bold="0" color="#294901">
      <![CDATA[TPS62821 Startup Simulation
(Exported from WEBENCH® Designer)]]>
    </text>
    <text id="T_123456" position="945,-148" fontname="Arial" fontsize="13" bold="1" italic="1" color="#278190" border="1">
      <![CDATA[Title :    TPS62821DLCR 3.5V-4.5V to 3.30V @ 0.3A
-------------------------------------------------------------------------
WEBENCH® Design ID                  :       6
Date of WEBENCH® Export           :       15-Aug-2020
Time of WEBENCH® Export          :       10:10:52 AM
WEBENCH® Export Tool Version :       E1.67-X2.27]]>
    </text>
    <component type="Cin" typeid="57" position="580,280" mirrored="0" nodematch="0" macrotype="2" orientation="0">
			<parameter idx="0" encrypted="0">
        <![CDATA[
***********************************
*     Created by WB Importer      *
***********************************
.SUBCKT MAIN_BLOCK_Cin_WB_CAP_POLARIZED 1 2
Ccap 1 3 4.7E-6
Resr 3 2 0.006
.ENDS]]>
      </parameter>
			<image>
				<label text="Cin" position="586,258" textroot=" " orientation="0" color=""/>  <hotzone points="-24,60,24,-60"/>
        <shape type="line" width="Hair" color="#0000ff" points="0,-60,0,-40"/>
        <shape type="line" width="Hair" color="#0000ff" points="0,60,0,40"/>
        <shape type="line" width="1" color="#0000ff" points="24,-6,-24,-6"/>
        <shape type="line" width="1" color="#0000ff" points="0,40,0,6"/>
        <shape type="line" width="1" color="#0000ff" points="0,-6,0,-40"/>
        <shape type="line" width="1" color="#0000ff" points="24,6,-24,6"/>
        <legend text="4.7 uF" position="8,18" orientation="0" fontname="Arial" fontsize="12" bold="0" italic="0" color="#229922"/>
        <legend text="6 mOhm" position="8,32" orientation="0" fontname="Arial" fontsize="12" bold="0" italic="0" color="#229922"/>
        <legend text="" position="8,48" orientation="0" fontname="Arial" fontsize="12" bold="0" italic="0" color="#229922"/>
        <pin position="0,-60" dir="0" length="0" text="1"/>
        <pin position="0,60" dir="0" length="0" text="2"/>
      </image>
		</component>
    <component type="Cout" typeid="57" position="1850,290" mirrored="0" nodematch="0" macrotype="2" orientation="0">
			<parameter idx="0" encrypted="0">
        <![CDATA[
***********************************
*     Created by WB Importer      *
***********************************
.SUBCKT MAIN_BLOCK_Cout_WB_CAP_CERAMIC 2 4
R1 2 3 0.00371
C1 3 4 7.4E-6 IC=0.0
R3 5 4 5
R2 2 4 1.3513513513513514E8
R4 3 26 824444.4444444445
R6 3 7 824.4444444444446
C5 7 1 2.22E-7 IC=0.0
R7 3 10 82.44444444444446
C6 10 1 2.22E-7 IC=0.0
R8 3 13 8.244444444444445
C7 13 1 2.22E-7 IC=0.0
C2 26 1 2.22E-7 IC=0.0
R9 3 28 82444.44444444445
C3 28 1 2.22E-7 IC=0.0
R10 3 29 8244.444444444445
C4 29 1 2.22E-7 IC=0.0
L8 1 5 15p
R24 1 5 0.011130000000000001
L12 5 4 1n
.ENDS]]>
      </parameter>
			<image>
				<label text="Cout" position="1856,268" textroot=" " orientation="0" color=""/>  <hotzone points="-24,60,24,-60"/>
        <shape type="line" width="Hair" color="#0000ff" points="0,-60,0,-40"/>
        <shape type="line" width="Hair" color="#0000ff" points="0,60,0,40"/>
        <shape type="line" width="1" color="#0000ff" points="24,-6,-24,-6"/>
        <shape type="line" width="1" color="#0000ff" points="0,40,0,6"/>
        <shape type="line" width="1" color="#0000ff" points="0,-6,0,-40"/>
        <shape type="line" width="1" color="#0000ff" points="24,6,-24,6"/>
        <legend text="22 uF" position="8,18" orientation="0" fontname="Arial" fontsize="12" bold="0" italic="0" color="#229922"/>
        <legend text="3.71 mOhm" position="8,32" orientation="0" fontname="Arial" fontsize="12" bold="0" italic="0" color="#229922"/>
        <legend text="" position="8,48" orientation="0" fontname="Arial" fontsize="12" bold="0" italic="0" color="#229922"/>
        <pin position="0,-60" dir="0" length="0" text="2"/>
        <pin position="0,60" dir="0" length="0" text="4"/>
      </image>
		</component>
    <component type="Ground" typeid="2" position="1870,530" mirrored="0" nodematch="0" macrotype="2" orientation="0">
			<parameter idx="0" encrypted="0">
			</parameter>
			<image>
				<label text="GND1" position="1870,530" textroot="GND1" orientation="0" color="#228822"/>
			</image>
		</component>
    <component type="Ground" typeid="2" position="480,530" mirrored="0" nodematch="0" macrotype="2" orientation="0">
			<parameter idx="0" encrypted="0">
			</parameter>
			<image>
				<label text="GND1" position="480,530" textroot="GND1" orientation="0" color="#228822"/>
			</image>
		</component>
    <component type="ICin" typeid="34" position="580,180" mirrored="0" nodematch="0" macrotype="2" orientation="0">
			<parameter idx="0" encrypted="0">
			</parameter>
			<image>
				<label text="ICin" position="580,180" textroot=" " orientation="0" color=""/>  <hotzone points="6,-30,-6,30"/>
        <shape type="line" width="Hair" color="#0000ff" points="0,-30,0,30"/>
        <shape type="line" width="1" color="#0000ff" points="4,-6,-4,-6"/>
        <shape type="line" width="1" color="#0000ff" points="-4,-6,0,4"/>
        <shape type="line" width="1" color="#0000ff" points="0,4,4,-6"/>
        <pin position="0,-30" dir="0" length="0" text="1"/>
        <pin position="0,30" dir="0" length="0" text="2"/>
      </image>  <parameter idx="0" encrypted="0">
        <![CDATA[***********************************
*     Created by WB Importer      *
***********************************
.SUBCKT ICin 1 2 
V_Iprobe 1 2 0.0
.ENDS
]]>
      </parameter>
      <parameter idx="1" name="VALUE" value="0"/>
    </component>
    <component type="ICout" typeid="34" position="1850,170" mirrored="0" nodematch="0" macrotype="2" orientation="0">
			<parameter idx="0" encrypted="0">
			</parameter>
			<image>
				<label text="ICout" position="1850,170" textroot=" " orientation="0" color=""/>  <hotzone points="6,-30,-6,30"/>
        <shape type="line" width="Hair" color="#0000ff" points="0,-30,0,30"/>
        <shape type="line" width="1" color="#0000ff" points="4,-6,-4,-6"/>
        <shape type="line" width="1" color="#0000ff" points="-4,-6,0,4"/>
        <shape type="line" width="1" color="#0000ff" points="0,4,4,-6"/>
        <pin position="0,-30" dir="0" length="0" text="1"/>
        <pin position="0,30" dir="0" length="0" text="2"/>
      </image>  <parameter idx="0" encrypted="0">
        <![CDATA[***********************************
*     Created by WB Importer      *
***********************************
.SUBCKT ICout 1 2 
V_Iprobe 1 2 0.0
.ENDS
]]>
      </parameter>
      <parameter idx="1" name="VALUE" value="0"/>
    </component>
    <component type="IIn" typeid="34" position="420,90" mirrored="0" nodematch="0" macrotype="2" orientation="0">
			<parameter idx="0" encrypted="0">
			</parameter>
			<image>
				<label text="IIn" position="420,90" textroot=" " orientation="0" color=""/>  <hotzone points="-30,-6,30,6"/>
        <shape type="line" width="Hair" color="#0000ff" points="-30,0,30,0"/>
        <shape type="line" width="1" color="#0000ff" points="-6,-4,-6,4"/>
        <shape type="line" width="1" color="#0000ff" points="-6,4,4,0"/>
        <shape type="line" width="1" color="#0000ff" points="4,0,-6,-4"/>
        <pin position="-30,0" dir="0" length="0" text="1"/>
        <pin position="30,0" dir="0" length="0" text="2"/>
      </image>  <parameter idx="0" encrypted="0">
        <![CDATA[***********************************
*     Created by WB Importer      *
***********************************
.SUBCKT IIn 1 2 
V_Iprobe 1 2 0.0
.ENDS
]]>
      </parameter>
      <parameter idx="1" name="VALUE" value="0"/>
    </component>
    <component type="IOut" typeid="34" position="1880,90" mirrored="0" nodematch="0" macrotype="2" orientation="0">
			<parameter idx="0" encrypted="0">
			</parameter>
			<image>
				<label text="IOut" position="1880,90" textroot=" " orientation="0" color=""/>  <hotzone points="-30,-6,30,6"/>
        <shape type="line" width="Hair" color="#0000ff" points="-30,0,30,0"/>
        <shape type="line" width="1" color="#0000ff" points="-6,-4,-6,4"/>
        <shape type="line" width="1" color="#0000ff" points="-6,4,4,0"/>
        <shape type="line" width="1" color="#0000ff" points="4,0,-6,-4"/>
        <pin position="-30,0" dir="0" length="0" text="1"/>
        <pin position="30,0" dir="0" length="0" text="2"/>
      </image>  <parameter idx="0" encrypted="0">
        <![CDATA[***********************************
*     Created by WB Importer      *
***********************************
.SUBCKT IOut 1 2 
V_Iprobe 1 2 0.0
.ENDS
]]>
      </parameter>
      <parameter idx="1" name="VALUE" value="0"/>
    </component>
    <component type="Rpg" typeid="57" position="740,170" mirrored="0" nodematch="0" macrotype="2" orientation="0">
			<parameter idx="0" encrypted="0">
        <![CDATA[
***********************************
*     Created by WB Importer      *
***********************************
.subckt MAIN_BLOCK_WB_TPS62823_MAIN_BLOCK_Rpg 1 2
Rpg 1 2 100000.0

.ends]]>
      </parameter>
			<image>
				<label text="Rpg" position="710,146" textroot=" " orientation="0" color=""/>  <hotzone points="-60,-10,60,10"/>
        <shape type="line" width="1" color="#0000ff" points="-60,0,-40,0"/>
        <shape type="line" width="1" color="#0000ff" points="-40,0,-30,-10"/>
        <shape type="line" width="1" color="#0000ff" points="-30,-10,-10,10"/>
        <shape type="line" width="1" color="#0000ff" points="-10,10,10,-10"/>
        <shape type="line" width="1" color="#0000ff" points="10,-10,30,10"/>
        <shape type="line" width="1" color="#0000ff" points="30,10,40,0"/>
        <shape type="line" width="1" color="#0000ff" points="40,0,60,0"/>
        <legend text="0.1 MOhm" position="-36,20" orientation="0" fontname="Arial" fontsize="12" bold="0" italic="0" color="#229922"/>
        <pin position="60,0" dir="0" length="0" text="1"/>
        <pin position="-60,0" dir="0" length="0" text="2"/>
      </image>
		</component>
    <component type="TPS62821DLCR" typeid="57" position="1010,150" mirrored="0" nodematch="0" macrotype="2" orientation="0">
			<parameter idx="0" encrypted="0">
        <![CDATA[*****************************************************************************
** MAIN_BLOCK.U1.WB_TPS62821DLC Spice Model
*****************************************************************************
** (C) Copyright 2020 Texas Instruments Incorporated. All rights reserved.
** This model is designed as an aid for customers of Texas Instruments.
** TI and its licensors and suppliers make no warranties, either expressed
** or implied, with respect to this model, including the warranties of
** merchantability or fitness for a particular purpose. The model is
** provided solely on an "as is" basis. The entire risk as to its quality
** and performance is with the customer
*****************************************************************************
*****************************************************************************

.SUBCKT MAIN_BLOCK_U1_WB_TPS62821DLC_ENCR EN FB AGND NC PGND SW VIN PG PARAMS: SS=0 CL=2.1
.include pspice://../MAIN_BLOCK.U1.WB_TPS62821DLC.enl
XCALL EN FB AGND NC PGND SW VIN PG MAIN_BLOCK_U1_WB_TPS62821DLC PARAMS: SS=0 CL=2.1 
.ENDS
]]>
      </parameter>
			<image>
				<label text="U1" position="870,-10" textroot="U1 " orientation="0" color=""/>  <hotzone points="-140,-140,140,140"/>
        <shape type="line" width="Hair" color="#0000ff" points="-100,100,100,100"/>
        <shape type="line" width="Hair" color="#0000ff" points="100,100,100,-100"/>
        <shape type="line" width="Hair" color="#0000ff" points="100,-100,-100,-100"/>
        <shape type="line" width="Hair" color="#0000ff" points="-100,-100,-100,100"/>
        <shape type="line" width="Hair" color="#0000ff" points="-140,-20,-100,-20"/>
        <shape type="line" width="Hair" color="#0000ff" points="140,20,100,20"/>
        <shape type="line" width="Hair" color="#0000ff" points="140,80,100,80"/>
        <shape type="line" width="Hair" color="#0000ff" points="-140,80,-100,80"/>
        <shape type="line" width="Hair" color="#0000ff" points="140,60,100,60"/>
        <shape type="line" width="Hair" color="#0000ff" points="140,-60,100,-60"/>
        <shape type="line" width="Hair" color="#0000ff" points="-140,-60,-100,-60"/>
        <shape type="line" width="Hair" color="#0000ff" points="-140,20,-100,20"/>
        <shape type="line" width="1" color="#ff0000" points="-1,-75,-2,-70"/>
        <shape type="line" width="1" color="#ff0000" points="-1,-77,-1,-77"/>
        <shape type="polygon" width="1" color="#ff0000" fill="#ff0000" points="-7,-79,-7,-73,-11,-73,-11,-72,-10,-71,-9,-69,-8,-68,-7,-68,-6,-69,-5,-68,-4,-66,-1,-64,0,-64,0,-66,1,-68,3,-69,4,-70,4,-73,3,-74,3,-76,1,-76,0,-74,2,-74,1,-72,0,-72,-1,-70,0,-70,0,-69,-1,-68,-3,-68,-4,-69,-3,-72,-5,-72,-4,-74,-3,-74,-3,-74,-2,-76,-4,-76,-4,-78,-4,-79"/>
        <legend text="TPS62821DLC" position="-44,-44" orientation="0" fontname="Arial" fontsize="10" bold="0" italic="0" color="4278190208"/>
        <pin position="-140,-20" dir="0" length="0" text="EN">
          <legend text="EN" position="-118,-30" orientation="0" fontname="Arial" fontsize="10" bold="0" italic="0" color="4286578688"/>
        </pin>
        <pin position="140,20" dir="0" length="0" text="FB">
          <legend text="FB" position="100,10" orientation="0" fontname="Arial" fontsize="10" bold="0" italic="0" color="4286578688"/>
        </pin>
        <pin position="140,80" dir="0" length="0" text="AGND">
          <legend text="AGND" position="80,70" orientation="0" fontname="Arial" fontsize="10" bold="0" italic="0" color="4286578688"/>
        </pin>
        <pin position="-140,80" dir="0" length="0" text="NC">
          <legend text="NC" position="-118,70" orientation="0" fontname="Arial" fontsize="10" bold="0" italic="0" color="4286578688"/>
        </pin>
        <pin position="140,60" dir="0" length="0" text="PGND">
          <legend text="PGND" position="80,50" orientation="0" fontname="Arial" fontsize="10" bold="0" italic="0" color="4286578688"/>
        </pin>
        <pin position="140,-60" dir="0" length="0" text="SW">
          <legend text="SW" position="100,-70" orientation="0" fontname="Arial" fontsize="10" bold="0" italic="0" color="4286578688"/>
        </pin>
        <pin position="-140,-60" dir="0" length="0" text="VIN">
          <legend text="VIN" position="-118,-70" orientation="0" fontname="Arial" fontsize="10" bold="0" italic="0" color="4286578688"/>
        </pin>
        <pin position="-140,20" dir="0" length="0" text="PG">
          <legend text="PG" position="-118,10" orientation="0" fontname="Arial" fontsize="10" bold="0" italic="0" color="4286578688"/>
        </pin>
      </image>
		</component>
    <component type="VOut" typeid="4" position="1940,90" mirrored="0" nodematch="0" macrotype="2" orientation="0">
			<parameter idx="0" encrypted="0">
			</parameter>
			<image>
				<label text="VOut" position="1940,60" textroot="VOut" orientation="0" color="#228822"/>
			</image>
		</component>
    <component type="Ground" typeid="2" position="1200,250" mirrored="0" nodematch="0" macrotype="2" orientation="0">
			<parameter idx="0" encrypted="0">
			</parameter>
			<image>
				<label text="GND1" position="1200,250" textroot="GND1" orientation="0" color="#228822"/>
			</image>
		</component>
    <component type="IInductor" typeid="34" position="1250,90" mirrored="0" nodematch="0" macrotype="2" orientation="0">
			<parameter idx="0" encrypted="0">
			</parameter>
			<image>
				<label text="IInductor" position="1250,90" textroot=" " orientation="0" color=""/>  <hotzone points="-30,-6,30,6"/>
        <shape type="line" width="Hair" color="#0000ff" points="-30,0,30,0"/>
        <shape type="line" width="1" color="#0000ff" points="-6,-4,-6,4"/>
        <shape type="line" width="1" color="#0000ff" points="-6,4,4,0"/>
        <shape type="line" width="1" color="#0000ff" points="4,0,-6,-4"/>
        <pin position="-30,0" dir="0" length="0" text="1"/>
        <pin position="30,0" dir="0" length="0" text="2"/>
      </image>  <parameter idx="0" encrypted="0">
        <![CDATA[***********************************
*     Created by WB Importer      *
***********************************
.SUBCKT IInductor 1 2 
V_Iprobe 1 2 0.0
.ENDS
]]>
      </parameter>
      <parameter idx="1" name="VALUE" value="0"/>
    </component>
    <component type="L1" typeid="57" position="1370,90" mirrored="0" nodematch="0" macrotype="2" orientation="0">
			<parameter idx="0" encrypted="0">
        <![CDATA[
***********************************
*     Created by WB Importer      *
***********************************
.SUBCKT MAIN_BLOCK_L1_WB_INDUCTOR 1 2
L1 2 3 4.7E-7
RDCR 3 1 0.026
.ENDS]]>
      </parameter>
			<image>
				<label text="L1" position="1336,60" textroot=" " orientation="0" color=""/>  <hotzone points="-60,-10,60,10"/>
        <shape type="line" width="Hair" color="#0000ff" points="40,0,60,0"/>
        <shape type="line" width="Hair" color="#0000ff" points="-40,0,-60,0"/>
        <legend text="0.47 uH" position="-30,8" orientation="0" fontname="Arial" fontsize="12" bold="0" italic="0" color="#229922"/>
        <legend text="26 mOhm" position="-30,22" orientation="0" fontname="Arial" fontsize="12" bold="0" italic="0" color="#229922"/>
        <shape type="arc" color="#0000ff" width="2" points="-40,-10,-20,10,90,90"/>
        <shape type="arc" color="#0000ff" width="2" points="-40,-10,-20,10,0,90"/>
        <shape type="arc" color="#0000ff" width="2" points="-20,-10,0,10,90,90"/>
        <shape type="arc" color="#0000ff" width="2" points="-20,-10,0,10,0,90"/>
        <shape type="arc" color="#0000ff" width="2" points="0,-10,20,10,90,90"/>
        <shape type="arc" color="#0000ff" width="2" points="0,-10,20,10,0,90"/>
        <shape type="arc" color="#0000ff" width="2" points="20,-10,40,10,90,90"/>
        <shape type="arc" color="#0000ff" width="2" points="20,-10,40,10,0,90"/>
        <pin position="-60,0" dir="0" length="0" text="1"/>
        <pin position="60,0" dir="0" length="0" text="2"/>
      </image>
		</component>
    <component type="VIn" typeid="4" position="480,90" mirrored="0" nodematch="0" macrotype="2" orientation="0">
			<parameter idx="0" encrypted="0">
			</parameter>
			<image>
				<label text="VIn" position="480,60" textroot="VIn" orientation="0" color="#228822"/>
			</image>
		</component>
    <component type="VSw" typeid="4" position="1170,90" mirrored="0" nodematch="0" macrotype="2" orientation="0">
			<parameter idx="0" encrypted="0">
			</parameter>
			<image>
				<label text="VSw" position="1170,60" textroot="VSw" orientation="0" color="#228822"/>
			</image>
		</component>
    <component type="ILoad" typeid="34" position="2030,200" mirrored="0" nodematch="0" macrotype="2" orientation="0">
			<parameter idx="0" encrypted="0">
			</parameter>
			<image>
				<label text="ILoad" position="2030,200" textroot=" " orientation="0" color=""/>  <hotzone points="6,-30,-6,30"/>
        <shape type="line" width="Hair" color="#0000ff" points="0,-30,0,30"/>
        <shape type="line" width="1" color="#0000ff" points="4,-6,-4,-6"/>
        <shape type="line" width="1" color="#0000ff" points="-4,-6,0,4"/>
        <shape type="line" width="1" color="#0000ff" points="0,4,4,-6"/>
        <pin position="0,-30" dir="0" length="0" text="1"/>
        <pin position="0,30" dir="0" length="0" text="2"/>
      </image>  <parameter idx="0" encrypted="0">
        <![CDATA[***********************************
*     Created by WB Importer      *
***********************************
.SUBCKT ILoad 1 2 
V_Iprobe 1 2 0.0
.ENDS
]]>
      </parameter>
      <parameter idx="1" name="VALUE" value="0"/>
    </component>
    <component type="Rload" typeid="57" position="2030,390" mirrored="0" nodematch="0" macrotype="2" orientation="0">
			<parameter idx="0" encrypted="0">
        <![CDATA[
***********************************
*     Created by WB Importer      *
***********************************
.subckt OUTPUT_BLOCK_WB_OUTPUT_BLOCK_STARTUP_PROBE_Rload 1 2
Rload 1 2 11.0

.ends]]>
      </parameter>
			<image>
				<label text="Rload" position="2048,360" textroot=" " orientation="0" color=""/>  <hotzone points="-10,60,10,-60"/>
        <shape type="line" width="1" color="#0000ff" points="0,60,0,40"/>
        <shape type="line" width="1" color="#0000ff" points="0,40,-10,30"/>
        <shape type="line" width="1" color="#0000ff" points="-10,30,10,10"/>
        <shape type="line" width="1" color="#0000ff" points="10,10,-10,-10"/>
        <shape type="line" width="1" color="#0000ff" points="-10,-10,10,-30"/>
        <shape type="line" width="1" color="#0000ff" points="10,-30,0,-40"/>
        <shape type="line" width="1" color="#0000ff" points="0,-40,0,-60"/>
        <pin position="0,-60" dir="0" length="0" text="1"/>
        <pin position="0,60" dir="0" length="0" text="2"/>
      </image>
		</component>
    <component type="Vin_2" typeid="57" position="370,250" mirrored="0" nodematch="0" macrotype="2" orientation="0">
			<parameter idx="0" encrypted="0">
        <![CDATA[
***********************************
*     Created by WB Importer      *
***********************************
.SUBCKT INPUT_BLOCK_Vin_WB_STARTUP_VOLTAGE_SOURCE 1 2
Rsource 3 1 1m
Vin1 3 2 PULSE 0 4.0 1u 10u
.ENDS]]>
      </parameter>
			<image>
				<label text="Vin_2" position="400,220" textroot=" " orientation="0" color=""/>  <hotzone points="30,-60,-30,60"/>
        <shape type="line" width="Hair" color="#0000ff" points="0,60,0,30"/>
        <shape type="line" width="Hair" color="#0000ff" points="0,-60,0,-30"/>
        <shape type="line" width="Hair" color="#0000ff" points="20,-30,20,-40"/>
        <shape type="line" width="Hair" color="#0000ff" points="14,-34,26,-34"/>
        <shape type="line" width="Hair" color="#0000ff" points="14,34,26,34"/>
        <shape type="line" width="1" color="#0000ff" points="-22,10,-16,10"/>
        <shape type="line" width="1" color="#0000ff" points="-16,10,-14,-10"/>
        <shape type="line" width="1" color="#0000ff" points="-14,-10,22,-10"/>
        <shape type="ellipse" points="-30,30,30,-30" color="#0000ff" width="2"/>
        <pin position="0,-60" dir="0" length="0" text="1"/>
        <pin position="0,60" dir="0" length="0" text="2"/>
      </image>
		</component>
    <component type="Cff" typeid="57" position="1500,210" mirrored="0" nodematch="0" macrotype="2" orientation="0">
			<parameter idx="0" encrypted="0">
        <![CDATA[
***********************************
*     Created by WB Importer      *
***********************************
.subckt MAIN_BLOCK_WB_CFF_BLOCK_TPS62821_WB_CFF_BLOCK_TPS62821_Cff 1 2
Cff 1 2 1.2E-10

.ends]]>
      </parameter>
			<image>
				<label text="Cff" position="1506,188" textroot=" " orientation="0" color=""/>  <hotzone points="-24,60,24,-60"/>
        <shape type="line" width="Hair" color="#0000ff" points="0,-60,0,-40"/>
        <shape type="line" width="Hair" color="#0000ff" points="0,60,0,40"/>
        <shape type="line" width="1" color="#0000ff" points="24,-6,-24,-6"/>
        <shape type="line" width="1" color="#0000ff" points="0,40,0,6"/>
        <shape type="line" width="1" color="#0000ff" points="0,-6,0,-40"/>
        <shape type="line" width="1" color="#0000ff" points="24,6,-24,6"/>
        <legend text="0.12 nF" position="8,18" orientation="0" fontname="Arial" fontsize="12" bold="0" italic="0" color="#229922"/>
        <legend text="1 mOhm" position="8,32" orientation="0" fontname="Arial" fontsize="12" bold="0" italic="0" color="#229922"/>
        <legend text="" position="8,48" orientation="0" fontname="Arial" fontsize="12" bold="0" italic="0" color="#229922"/>
        <pin position="0,-60" dir="0" length="0" text="1"/>
        <pin position="0,60" dir="0" length="0" text="2"/>
      </image>
		</component>
    <component type="Rfbb" typeid="57" position="1660,430" mirrored="0" nodematch="0" macrotype="2" orientation="0">
			<parameter idx="0" encrypted="0">
        <![CDATA[
***********************************
*     Created by WB Importer      *
***********************************
.subckt MAIN_BLOCK_WB_TLV6258x_FBDIVIDER_WB_TLV6258x_FBDIVIDER_Rfbb 1 2
Rfbb 1 2 100000.0

.ends]]>
      </parameter>
			<image>
				<label text="Rfbb" position="1678,400" textroot=" " orientation="0" color=""/>  <hotzone points="-10,60,10,-60"/>
        <shape type="line" width="1" color="#0000ff" points="0,60,0,40"/>
        <shape type="line" width="1" color="#0000ff" points="0,40,-10,30"/>
        <shape type="line" width="1" color="#0000ff" points="-10,30,10,10"/>
        <shape type="line" width="1" color="#0000ff" points="10,10,-10,-10"/>
        <shape type="line" width="1" color="#0000ff" points="-10,-10,10,-30"/>
        <shape type="line" width="1" color="#0000ff" points="10,-30,0,-40"/>
        <shape type="line" width="1" color="#0000ff" points="0,-40,0,-60"/>
        <legend text="0.1 MOhm" position="10,-8" orientation="0" fontname="Arial" fontsize="12" bold="0" italic="0" color="#229922"/>
        <pin position="0,-60" dir="0" length="0" text="1"/>
        <pin position="0,60" dir="0" length="0" text="2"/>
      </image>
		</component>
    <component type="Rfbt" typeid="57" position="1660,230" mirrored="0" nodematch="0" macrotype="2" orientation="0">
			<parameter idx="0" encrypted="0">
        <![CDATA[
***********************************
*     Created by WB Importer      *
***********************************
.subckt MAIN_BLOCK_WB_TLV6258x_FBDIVIDER_WB_TLV6258x_FBDIVIDER_Rfbt 1 2
Rfbt 1 2 453000.0

.ends]]>
      </parameter>
			<image>
				<label text="Rfbt" position="1678,200" textroot=" " orientation="0" color=""/>  <hotzone points="-10,60,10,-60"/>
        <shape type="line" width="1" color="#0000ff" points="0,60,0,40"/>
        <shape type="line" width="1" color="#0000ff" points="0,40,-10,30"/>
        <shape type="line" width="1" color="#0000ff" points="-10,30,10,10"/>
        <shape type="line" width="1" color="#0000ff" points="10,10,-10,-10"/>
        <shape type="line" width="1" color="#0000ff" points="-10,-10,10,-30"/>
        <shape type="line" width="1" color="#0000ff" points="10,-30,0,-40"/>
        <shape type="line" width="1" color="#0000ff" points="0,-40,0,-60"/>
        <legend text="0.453 MOhm" position="10,-8" orientation="0" fontname="Arial" fontsize="12" bold="0" italic="0" color="#229922"/>
        <pin position="0,-60" dir="0" length="0" text="1"/>
        <pin position="0,60" dir="0" length="0" text="2"/>
      </image>
		</component>
    <wire points="370,90,390,90" label=""/>
    <wire points="2010,530,2030,530" label=""/>
    <wire points="2010,90,2030,90" label=""/>
    <wire points="370,530,390,530" label=""/>
    <wire points="370,90,390,90" label=""/>
    <wire points="390,530,580,530" label=""/>
    <wire points="580,530,580,340" label=""/>
    <wire points="580,210,580,220" label=""/>
    <wire points="580,150,580,90" label=""/>
    <wire points="660,170,660,90" label=""/>
    <wire points="680,170,660,170" label=""/>
    <wire points="870,170,800,170" label=""/>
    <wire points="870,130,870,90" label=""/>
    <wire points="870,90,450,90" label=""/>
    <wire points="1150,230,1200,230" label=""/>
    <wire points="1150,210,1200,210" label=""/>
    <wire points="1150,170,1270,170" label=""/>
    <wire points="1150,90,1220,90" label=""/>
    <wire points="1200,250,1200,210" label=""/>
    <wire points="1270,350,1640,350" label=""/>
    <wire points="1270,170,1270,350" label=""/>
    <wire points="1310,90,1280,90" label=""/>
    <wire points="1430,90,1850,90" label=""/>
    <wire points="1850,350,1850,530" label=""/>
    <wire points="1850,200,1850,230" label=""/>
    <wire points="1850,140,1850,90" label=""/>
    <wire points="1910,90,2010,90" label=""/>
    <wire points="2010,530,580,530" label=""/>
    <wire points="2030,90,2030,110" label=""/>
    <wire points="2030,510,2030,530" label=""/>
    <wire points="2030,510,2030,450" label=""/>
    <wire points="2030,270,2030,330" label=""/>
    <wire points="2030,270,2030,230" label=""/>
    <wire points="2030,110,2030,170" label=""/>
    <wire points="370,90,370,110" label=""/>
    <wire points="370,510,370,530" label=""/>
    <wire points="370,310,370,510" label=""/>
    <wire points="370,190,370,110" label=""/>
    <wire points="1380,350,1400,350" label=""/>
    <wire points="1500,90,1500,110" label=""/>
    <wire points="1500,350,1400,350" label=""/>
    <wire points="1500,270,1500,350" label=""/>
    <wire points="1500,110,1500,150" label=""/>
    <wire points="1640,350,1660,350" label=""/>
    <wire points="1660,90,1660,110" label=""/>
    <wire points="1660,510,1660,530" label=""/>
    <wire points="1660,490,1660,510" label=""/>
    <wire points="1660,370,1660,290" label=""/>
    <wire points="1660,110,1660,170" label=""/>
  </circuit>
  <analysis>
    <altium_simulation>